Metadata-Version: 2.4
Name: aeolusdt-njord
Version: 0.1.0
Summary: AeolusDT-Njord: Offshore wind farm digital twin (wind-field replay, inflow, power, OpenFAST)
Requires-Python: >=3.11
Description-Content-Type: text/markdown
Requires-Dist: xarray>=2024.1
Requires-Dist: numpy>=1.26
Requires-Dist: pandas>=2.1
Requires-Dist: matplotlib>=3.8
Requires-Dist: netCDF4>=1.6
Requires-Dist: dask[array]>=2024.1
